trunk/ieee.odm_pss/testdata/bpa/014bpa.DAT
transient
(POWERFLOW,CASEID=EMS,PROJECT=TEST)
/P_INPUT_LIST,FULL\
/P_OUTPUT_LIST,FULL\
/P_ANALYSIS_RPT,LEVEL=4\
/NETWORK_DATA\
.234567890*234567890*234567890*234567890*234567890*234567890*234567890*234567890                                                                             
BS    BUS-1    100 1                      232.399990-99991060                                                                                                                                                                                                                                              
BQ    BUS-2    100 121.7 12.7             40.  50.  -40. 1045                                                                                                                                                                                                                                              
BQ    BUS-3    100 194.2 19.                   40.       1010                                                                                                                                                                                                                                              
B     BUS-4    100 147.8 -3.9                                                                                                                                                                                                                                                                              
B     BUS-5    100 17.6  1.6                                                                                                                                                                                                                                                                               
BQ    BUS-6    100 111.2 7.5                   24.  -6.  1070                                                                                                                                                                                                                                              
B     BUS-7    100 1                                                                                                                                                                                                                                                                                       
BQ    BUS-8    100 1                           24.  -6.  1090                                                                                                                                                                                                                                              
B     BUS-9    100 129.5 16.6     19.                                                                                                                                                                                                                                                                      
B     BUS-10   100 19.   5.8                                                                                                                                                                                                                                                                               
B     BUS-11   100 13.5  1.8                                                                                                                                                                                                                                                                               
B     BUS-12   100 16.1  1.6                                                                                                                                                                                                                                                                               
B     BUS-13   100 113.5 5.8                                                                                                                                                                                                                                                                               
B     BUS-14   100 114.9 5.                                                                                                                                                                                                                                                                                
-999
.234567890*234567890*234567890*234567890*234567890*234567890*234567890*234567890
.234567890*234567890*234567890*234567890*234567890*234567890*234567890*234567890
L     BUS-2    100 BUS-1    100       .01938.05917      .0264                                                                                                                                                                                                                                              
L     BUS-3    100 BUS-2    100       .04699.19797      .0219                                                                                                                                                                                                                                              
L     BUS-4    100 BUS-2    100       .05811.17632      .0187                                                                                                                                                                                                                                              
L     BUS-5    100 BUS-1    100       .05403.22304      .0246                                                                                                                                                                                                                                              
L     BUS-5    100 BUS-2    100       .05695.17388      .017                                                                                                                                                                                                                                               
L     BUS-4    100 BUS-3    100       .06701.17103      .0173                                                                                                                                                                                                                                              
L     BUS-5    100 BUS-4    100       .01335.04211      .0064                                                                                                                                                                                                                                              
L     BUS-8    100 BUS-7    100             .17615                                                                                                                                                                                                                                                         
L     BUS-9    100 BUS-7    100             .11001                                                                                                                                                                                                                                                         
L     BUS-10   100 BUS-9    100       .03181.0845                                                                                                                                                                                                                                                          
L     BUS-11   100 BUS-6    100       .09498.1989                                                                                                                                                                                                                                                          
L     BUS-12   100 BUS-6    100       .12291.25581                                                                                                                                                                                                                                                         
L     BUS-13   100 BUS-6    100       .06615.13027                                                                                                                                                                                                                                                         
L     BUS-14   100 BUS-9    100       .12711.27038                                                                                                                                                                                                                                                         
L     BUS-11   100 BUS-10   100       .08205.19207                                                                                                                                                                                                                                                         
L     BUS-13   100 BUS-12   100       .22092.19988                                                                                                                                                                                                                                                         
L     BUS-14   100 BUS-13   100       .17093.34802                                                                                                                                                                                                                                                         
T     BUS-6    100 BUS-5    100             .25202            100. 93.2                                                                                                                                                                                                                                    
T     BUS-7    100 BUS-4    100             .20912            100. 97.8                                                                                                                                                                                                                                    
T     BUS-9    100 BUS-4    100             .55618            100. 96.9                                                                                                                                                                                                                                                               
.234567890*234567890*234567890*234567890*234567890*234567890*234567890*234567890                                                                       
(END)
CASE nf10       5                                                                                                                                                                                                                                                    
LS  YN01-HLZ525.  kunxibg 525. 1    1  0.0                                                                                            
LS -YN01-HLZ525.  kunxibg 525. 1    1  2.0                                                                                        
LS -YN01-HLZ525. -kunxibg 525. 1   -1  4.0                                          
LS  TSQD-M  230.                    4  18.                             -50                                           
LS  anshdc3 20.0                    4  25.                                 200                    
LS  TSQ_POS 209.  GNG_POS 198.  4   5  13.                                         
LS  TSQ_POS 209.  GNG_POS 198. -4   5  23.                                                                                                                                                                                                                                      
99                                                                           
